45
Lattice="7.084087802956708 0.0 0.0 0.0 8.676200205158938 0.0 0.0 0.0 28.0" Properties=species:S:1:pos:R:3:initial_magmoms:R:1:forces:R:3:magmoms:R:1 adsorbate_info="_JSON {\"sites\": {}}" energy=-132.80760732029864 dipole="-29.52943092617504 -15.532877498740847 7.9777605625678225" magmom=0.0 pbc="T T F"
Ag       4.82069871       1.50474140      16.38881022       0.00000000      -0.00758105       0.00198452       0.01460045       0.00000000
Ag       4.78850746       4.39221390      16.62775455       0.00000000      -0.00148902      -0.00552746      -0.03217725       0.00000000
Ag       4.81203256       7.29404889      16.40975346       0.00000000      -0.00389905       0.00449220      -0.00411466       0.00000000
Ag       2.44399869       0.05205702      15.60271561       0.00000000      -0.00286362       0.00237005       0.00159256       0.00000000
Ag       2.43432076       2.94722382      15.57550087       0.00000000      -0.00276343       0.00177940      -0.00001427       0.00000000
Ag       2.43491136       5.83746769      15.58967028       0.00000000       0.00052003      -0.00324262      -0.00396748       0.00000000
Ag       0.09847513       1.48447759      14.76883658       0.00000000      -0.00031080       0.01068093       0.01199421       0.00000000
Ag       0.06371082       4.38761536      14.82360472       0.00000000       0.00391817       0.00470480      -0.00023048       0.00000000
Ag       0.09328584       7.27352557      14.78065414       0.00000000      -0.00003901      -0.00030536       0.00828574       0.00000000
Ag       4.81886809       0.04192199      13.83854265       0.00000000      -0.00216176       0.00504867      -0.00040654       0.00000000
Ag       4.81291593       2.95384244      13.85775021       0.00000000      -0.00085749       0.01087470       0.00713600       0.00000000
Ag       4.80380633       5.80451256      13.87832624       0.00000000       0.00232682      -0.00183825      -0.00022621       0.00000000
Ag       2.41448136       1.49111750      12.96298834       0.00000000      -0.00068148       0.00364251       0.00709225       0.00000000
Ag       2.40300692       4.38658404      12.97613183       0.00000000       0.00133152       0.00703206       0.00830013       0.00000000
Ag       2.41174060       7.27554571      12.96563556       0.00000000      -0.00031024       0.00221891       0.00497688       0.00000000
Ag       0.02485893       0.01570626      12.09656799       0.00000000       0.00045854       0.00347255       0.00049401       0.00000000
Ag       0.02221565       2.91049065      12.10063435       0.00000000      -0.00202070       0.00309916      -0.00007004       0.00000000
Ag       0.01583843       5.79969084      12.10461589       0.00000000       0.00215880       0.00384957      -0.00231283       0.00000000
Ag       4.72272520       1.44603337      11.17433877       0.00000000       0.08887537       0.02310716       0.45375281       0.00000000
Ag       4.72272520       4.33810010      11.17433877       0.00000000       0.06288912       0.02125874       0.42959497       0.00000000
Ag       4.72272520       7.23016684      11.17433877       0.00000000       0.08023986       0.00735884       0.47096045       0.00000000
Ag       2.36136260       0.00000000      10.33947102       0.00000000       0.02278193       0.01344867       0.27628952       0.00000000
Ag       2.36136260       2.89206674      10.33947102       0.00000000       0.03583102       0.02623073       0.31332506       0.00000000
Ag       2.36136260       5.78413347      10.33947102       0.00000000       0.02932607       0.00604717       0.32152490       0.00000000
Ag      -0.00000000       1.44603337       9.50460326       0.00000000      -0.10044701      -0.00088122       0.04788426       0.00000000
Ag      -0.00000000       4.33810010       9.50460326       0.00000000      -0.10518244       0.00889608       0.05909598       0.00000000
Ag      -0.00000000       7.23016684       9.50460326       0.00000000      -0.10073941       0.01188826       0.05214810       0.00000000
Ag       4.72272520       0.00000000       8.66973551       0.00000000      -0.09981962      -0.00029990      -0.40252304       0.00000000
Ag       4.72272520       2.89206674       8.66973551       0.00000000      -0.09735627      -0.01177363      -0.39147423       0.00000000
Ag       4.72272520       5.78413347       8.66973551       0.00000000      -0.09794026       0.01095565      -0.39040946       0.00000000
Ag       2.36136260       1.44603337       7.83486775       0.00000000       0.07194873       0.00215380      -0.33542778       0.00000000
Ag       2.36136260       4.33810010       7.83486775       0.00000000       0.05093722       0.00015151      -0.33301652       0.00000000
Ag       2.36136260       7.23016684       7.83486775       0.00000000       0.07192008      -0.00317826      -0.33444383       0.00000000
Ag       0.00000000       0.00000000       7.00000000       0.00000000      -0.04878413       0.00022617      -0.11890161       0.00000000
Ag       0.00000000       2.89206674       7.00000000       0.00000000      -0.04125374       0.01210327      -0.11280312       0.00000000
Ag       0.00000000       5.78413347       7.00000000       0.00000000      -0.04108175      -0.01256157      -0.11228998       0.00000000
C        4.76702562       4.31188217      18.85946307       0.00000000       0.01003115       0.01379135       0.04589550       0.00000000
O        5.91267969       4.40680835      19.38690308       0.00000000      -0.00539889      -0.00211111      -0.01806183       0.00000000
O        3.64656040       4.18909305      19.43138520       0.00000000       0.01043335      -0.00350442      -0.01458789       0.00000000
O        3.37055395       5.51423616      21.90687247       0.00000000       0.00128466      -0.00405178      -0.00552312       0.00000000
H        3.21822030       6.43037929      21.61681216       0.00000000      -0.00087891      -0.00081119       0.01608878       0.00000000
H        3.50256932       5.02174394      21.05388573       0.00000000      -0.00223587       0.01171752       0.00436949       0.00000000
O        6.32451802       2.92580594      21.75901669       0.00000000      -0.00440985      -0.00074911      -0.00247522       0.00000000
H        6.14782410       3.46348957      20.94307686       0.00000000       0.00387173       0.01102157       0.01582292       0.00000000
H        6.41760381       2.02093730      21.41386242       0.00000000       0.00958417      -0.00953437       0.02041405       0.00000000
